VERS 161019 507 33785
MODE SEQ
NAME US 6,621,643 Example 1 (Nikon AF Zoom-Nikkor 28-200mm f/3.5-5.6G IF-ED)
NOTE 0 Prepared and converted by Bill Claff.
PFIL 0 0 0
LANG 0
UNIT MM X W X CM MR CPMM
FLOA
ENVD 20 1 0
GFAC 0 0
RAIM 0 2 1 1 0 1 0 0 0
SDMA 0 1 0
FTYP 3 0 3 3 0 0 0
ROPD 2
HYPR 0
PICB 1
XFLN 0 0 0 0 0 0 0 0 0 0 0 0
YFLN 0 15.12 21.6 0 0 0 0 0 0 0 0 0 0
FWGN 1 1 1 1 1 1 1 1 1 1 1 1
VDXN 0 0 0 0 0 0 0 0 0 0 0 0
VDYN 0 0 0 0 0 0 0 0 0 0 0 0
VCXN 0 0 0 0 0 0 0 0 0 0 0 0
VCYN 0 0 0 0 0 0 0 0 0 0 0 0
VANN 0 0 0 0 0 0 0 0 0 0 0 0
WAVM 1 0.4861327 1
WAVM 2 0.5875618 1
WAVM 3 0.6562725 1
WAVM 4 0.550 1
WAVM 5 0.550 1
WAVM 6 0.550 1
WAVM 7 0.550 1
WAVM 8 0.550 1
WAVM 9 0.550 1
WAVM 10 0.550 1
WAVM 11 0.550 1
WAVM 12 0.550 1
WAVM 13 0.550 1
WAVM 14 0.550 1
WAVM 15 0.550 1
WAVM 16 0.550 1
WAVM 17 0.550 1
WAVM 18 0.550 1
WAVM 19 0.550 1
WAVM 20 0.550 1
WAVM 21 0.550 1
WAVM 22 0.550 1
WAVM 23 0.550 1
WAVM 24 0.550 1
PWAV 2
POLS 1 0 1 0 0 1 0
GSTD 0 100 100 100 100 100 100 0 1 1 0 0 1 1 1 1 1 1
NSCD 100 500 0 1.0E-3 5 1.0E-6 0 0 0 0 0 0 1000000 0 2
SURF 0
  TYPE STANDARD
  CURV 0.0 0 0 0 0 ""
  HIDE 0 0 0 0 0 0 0 0 0 0
  MIRR 2 0
  DISZ INFINITY
  DIAM 0 1 0 0 1 ""
  POPS 0 0 0 0 0 0 0 0 1 1 1 1 0 0 0 0
SURF 1
  TYPE STANDARD
  CURV 0.0117238242176692 0 0 0 0
  HIDE 0 0 0 0 0 0 0 0 0 0
  MIRR 2 0
  DISZ  1.8
  GLAS  ___BLANK 1 0 1.84666 23.78 0 0 0 0 0 0
  DIAM  25.51 1 0 0 1 ""
  POPS 0 0 0 0 0 0 0 0 1 1 1 1 0 0 0 0
SURF 2
  TYPE STANDARD
  CURV 0.0191029630606003 0 0 0 0
  HIDE 0 0 0 0 0 0 0 0 0 0
  MIRR 2 0
  DISZ  6.8
  GLAS  ___BLANK 1 0 1.64000 60.09 0 0 0 0 0 0
  DIAM  23.76 1 0 0 1 ""
  POPS 0 0 0 0 0 0 0 0 1 1 1 1 0 0 0 0
SURF 3
  TYPE STANDARD
  CURV -9.01147539299495E-05 0 0 0 0
  HIDE 0 0 0 0 0 0 0 0 0 0
  MIRR 2 0
  DISZ  0.1
  DIAM  23.76 1 0 0 1 ""
  POPS 0 0 0 0 0 0 0 0 1 1 1 1 0 0 0 0
SURF 4
  TYPE STANDARD
  CURV 0.0174602952885139 0 0 0 0
  HIDE 0 0 0 0 0 0 0 0 0 0
  MIRR 2 0
  DISZ  3.85
  GLAS  ___BLANK 1 0 1.49782 82.52 0 0 0 0 0 0
  DIAM  20.53 1 0 0 1 ""
  POPS 0 0 0 0 0 0 0 0 1 1 1 1 0 0 0 0
SURF 5
  TYPE STANDARD
  CURV 0.00429829847556546 0 0 0 0
  HIDE 0 0 0 0 0 0 0 0 0 0
  MIRR 2 0
  DISZ  2.16928
  DIAM  20.53 1 0 0 1 ""
  POPS 0 0 0 0 0 0 0 0 1 1 1 1 0 0 0 0
SURF 6
  TYPE XOSPHERE
  CURV 0.0087946029280751 0 0 0 0
  HIDE 0 0 0 0 0 0 0 0 0 0
  MIRR 2 0
  XDAT 1 12 0 0 1 0 0 ""
  XDAT 2 1 0 0 1 0 0 ""
  XDAT 3 0 0 0 1 0 0 ""
  XDAT 4 0 0 0 1 0 0 ""
  XDAT 5 -1.1851E-06 0 0 1 0 0 ""
  XDAT 6 1.4170E-06 0 0 1 0 0 ""
  XDAT 7 0.0000E+00 0 0 1 0 0 ""
  XDAT 8 -9.0614E-09 0 0 1 0 0 ""
  XDAT 9 0 0 0 1 0 0 ""
  XDAT 10 -8.3202E-11 0 0 1 0 0 ""
  XDAT 11 0 0 0 1 0 0 ""
  XDAT 12 1.3488E-12 0 0 1 0 0 ""
  XDAT 13 0 0 0 1 0 0 ""
  XDAT 14 -3.8798E-15 0 0 1 0 0 ""
  DISZ  0.05
  CONI  5.2788
  GLAS  ___BLANK 1 0 1.55389 38.09 0 0 0 0 0 0
  DIAM  13.5 1 0 0 1 ""
  POPS 0 0 0 0 0 0 0 0 1 1 1 1 0 0 0 0
SURF 7
  TYPE STANDARD
  CURV 0.0101546863369711 0 0 0 0
  HIDE 0 0 0 0 0 0 0 0 0 0
  MIRR 2 0
  DISZ  1.6
  GLAS  ___BLANK 1 0 1.83481 42.72 0 0 0 0 0 0
  DIAM  13.5 1 0 0 1 ""
  POPS 0 0 0 0 0 0 0 0 1 1 1 1 0 0 0 0
SURF 8
  TYPE STANDARD
  CURV 0.0660864278303165 0 0 0 0
  HIDE 0 0 0 0 0 0 0 0 0 0
  MIRR 2 0
  DISZ  4.8
  DIAM  9.96 1 0 0 1 ""
  POPS 0 0 0 0 0 0 0 0 1 1 1 1 0 0 0 0
SURF 9
  TYPE STANDARD
  CURV -0.0204056646124964 0 0 0 0
  HIDE 0 0 0 0 0 0 0 0 0 0
  MIRR 2 0
  DISZ  0.9
  GLAS  ___BLANK 1 0 1.77250 49.61 0 0 0 0 0 0
  DIAM  9.96 1 0 0 1 ""
  POPS 0 0 0 0 0 0 0 0 1 1 1 1 0 0 0 0
SURF 10
  TYPE STANDARD
  CURV 0.0166695282690195 0 0 0 0
  HIDE 0 0 0 0 0 0 0 0 0 0
  MIRR 2 0
  DISZ  0.1
  DIAM  9.96 1 0 0 1 ""
  POPS 0 0 0 0 0 0 0 0 1 1 1 1 0 0 0 0
SURF 11
  TYPE STANDARD
  CURV 0.0387109261589084 0 0 0 0
  HIDE 0 0 0 0 0 0 0 0 0 0
  MIRR 2 0
  DISZ  3.5
  GLAS  ___BLANK 1 0 1.80809 22.76 0 0 0 0 0 0
  DIAM  9.275 1 0 0 1 ""
  POPS 0 0 0 0 0 0 0 0 1 1 1 1 0 0 0 0
SURF 12
  TYPE STANDARD
  CURV -0.0176018841056747 0 0 0 0
  HIDE 0 0 0 0 0 0 0 0 0 0
  MIRR 2 0
  DISZ  0.95
  DIAM  8.95 1 0 0 1 ""
  POPS 0 0 0 0 0 0 0 0 1 1 1 1 0 0 0 0
SURF 13
  TYPE STANDARD
  CURV -0.0396300141875451 0 0 0 0
  HIDE 0 0 0 0 0 0 0 0 0 0
  MIRR 2 0
  DISZ  0.9
  GLAS  ___BLANK 1 0 1.77250 49.61 0 0 0 0 0 0
  DIAM  8.95 1 0 0 1 ""
  POPS 0 0 0 0 0 0 0 0 1 1 1 1 0 0 0 0
SURF 14
  TYPE STANDARD
  CURV 0.002 0 0 0 0
  HIDE 0 0 0 0 0 0 0 0 0 0
  MIRR 2 0
  DISZ  19.14864
  DIAM  9.275 1 0 0 1 ""
  POPS 0 0 0 0 0 0 0 0 1 1 1 1 0 0 0 0
SURF 15
  STOP
  TYPE STANDARD
  CURV 0 0 0 0 0
  HIDE 0 0 0 0 0 0 0 0 0 0
  MIRR 2 0
  DISZ  0.5
  DIAM  8.2385 1 0 0 1 ""
  POPS 0 0 0 0 0 0 0 0 1 1 1 1 0 0 0 0
SURF 16
  TYPE STANDARD
  CURV 0.040907659141021 0 0 0 0
  HIDE 0 0 0 0 0 0 0 0 0 0
  MIRR 2 0
  DISZ  4.3
  GLAS  ___BLANK 1 0 1.49782 82.52 0 0 0 0 0 0
  DIAM  9.765 1 0 0 1 ""
  POPS 0 0 0 0 0 0 0 0 1 1 1 1 0 0 0 0
SURF 17
  TYPE STANDARD
  CURV -0.0256668240898544 0 0 0 0
  HIDE 0 0 0 0 0 0 0 0 0 0
  MIRR 2 0
  DISZ  0.1
  DIAM  9.765 1 0 0 1 ""
  POPS 0 0 0 0 0 0 0 0 1 1 1 1 0 0 0 0
SURF 18
  TYPE STANDARD
  CURV 0.0419794132957198 0 0 0 0
  HIDE 0 0 0 0 0 0 0 0 0 0
  MIRR 2 0
  DISZ  2.05
  GLAS  ___BLANK 1 0 1.49782 82.52 0 0 0 0 0 0
  DIAM  9.545 1 0 0 1 ""
  POPS 0 0 0 0 0 0 0 0 1 1 1 1 0 0 0 0
SURF 19
  TYPE STANDARD
  CURV 0.0215750195793303 0 0 0 0
  HIDE 0 0 0 0 0 0 0 0 0 0
  MIRR 2 0
  DISZ  2.7
  DIAM  9.16 1 0 0 1 ""
  POPS 0 0 0 0 0 0 0 0 1 1 1 1 0 0 0 0
SURF 20
  TYPE STANDARD
  CURV -0.0403443796244745 0 0 0 0
  HIDE 0 0 0 0 0 0 0 0 0 0
  MIRR 2 0
  DISZ  1
  GLAS  ___BLANK 1 0 1.84666 23.78 0 0 0 0 0 0
  DIAM  9.16 1 0 0 1 ""
  POPS 0 0 0 0 0 0 0 0 1 1 1 1 0 0 0 0
SURF 21
  TYPE STANDARD
  CURV -0.0179591250314285 0 0 0 0
  HIDE 0 0 0 0 0 0 0 0 0 0
  MIRR 2 0
  DISZ  5.7508
  DIAM  9.545 1 0 0 1 ""
  POPS 0 0 0 0 0 0 0 0 1 1 1 1 0 0 0 0
SURF 22
  TYPE XOSPHERE
  CURV 0.00966534702461957 0 0 0 0
  HIDE 0 0 0 0 0 0 0 0 0 0
  MIRR 2 0
  XDAT 1 10 0 0 1 0 0 ""
  XDAT 2 1 0 0 1 0 0 ""
  XDAT 3 0 0 0 1 0 0 ""
  XDAT 4 0 0 0 1 0 0 ""
  XDAT 5 -2.3379E-06 0 0 1 0 0 ""
  XDAT 6 -1.6150E-05 0 0 1 0 0 ""
  XDAT 7 0.0000E+00 0 0 1 0 0 ""
  XDAT 8 -2.1098E-07 0 0 1 0 0 ""
  XDAT 9 0 0 0 1 0 0 ""
  XDAT 10 7.4305E-10 0 0 1 0 0 ""
  XDAT 11 0 0 0 1 0 0 ""
  XDAT 12 1.7382E-11 0 0 1 0 0 ""
  DISZ  3.5
  CONI  -100.9999
  GLAS  ___BLANK 1 0 1.51680 64.10 0 0 0 0 0 0
  DIAM  9.275 1 0 0 1 ""
  POPS 0 0 0 0 0 0 0 0 1 1 1 1 0 0 0 0
SURF 23
  TYPE XOSPHERE
  CURV -0.0341835932425873 0 0 0 0
  HIDE 0 0 0 0 0 0 0 0 0 0
  MIRR 2 0
  XDAT 1 12 0 0 1 0 0 ""
  XDAT 2 1 0 0 1 0 0 ""
  XDAT 3 0 0 0 1 0 0 ""
  XDAT 4 0 0 0 1 0 0 ""
  XDAT 5 -3.5074E-06 0 0 1 0 0 ""
  XDAT 6 -1.2621E-05 0 0 1 0 0 ""
  XDAT 7 0.0000E+00 0 0 1 0 0 ""
  XDAT 8 -5.8347E-08 0 0 1 0 0 ""
  XDAT 9 0 0 0 1 0 0 ""
  XDAT 10 -4.5042E-10 0 0 1 0 0 ""
  XDAT 11 0 0 0 1 0 0 ""
  XDAT 12 2.2333E-11 0 0 1 0 0 ""
  XDAT 13 0 0 0 1 0 0 ""
  XDAT 14 -3.2891E-15 0 0 1 0 0 ""
  DISZ  0
  CONI  1.1022
  DIAM  9.275 1 0 0 1 ""
  POPS 0 0 0 0 0 0 0 0 1 1 1 1 0 0 0 0
SURF 24
  TYPE STANDARD
  CURV 0 0 0 0 0
  HIDE 0 0 0 0 0 0 0 0 0 0
  MIRR 2 0
  DISZ  7.85
  DIAM  9.1 1 0 0 1 ""
  POPS 0 0 0 0 0 0 0 0 1 1 1 1 0 0 0 0
SURF 25
  TYPE XOSPHERE
  CURV -0.00321403375699655 0 0 0 0
  HIDE 0 0 0 0 0 0 0 0 0 0
  MIRR 2 0
  XDAT 1 12 0 0 1 0 0 ""
  XDAT 2 1 0 0 1 0 0 ""
  XDAT 3 0 0 0 1 0 0 ""
  XDAT 4 0 0 0 1 0 0 ""
  XDAT 5 -6.9399E-06 0 0 1 0 0 ""
  XDAT 6 -3.8277E-05 0 0 1 0 0 ""
  XDAT 7 6.5412E-08 0 0 1 0 0 ""
  XDAT 8 -5.6657E-09 0 0 1 0 0 ""
  XDAT 9 0 0 0 1 0 0 ""
  XDAT 10 -7.0116E-10 0 0 1 0 0 ""
  XDAT 11 0 0 0 1 0 0 ""
  XDAT 12 3.7914E-12 0 0 1 0 0 ""
  XDAT 13 0 0 0 1 0 0 ""
  XDAT 14 1.6919E-14 0 0 1 0 0 ""
  DISZ  0.2
  CONI  575.7229
  GLAS  ___BLANK 1 0 1.55389 38.09 0 0 0 0 0 0
  DIAM  10 1 0 0 1 ""
  POPS 0 0 0 0 0 0 0 0 1 1 1 1 0 0 0 0
SURF 26
  TYPE STANDARD
  CURV -0.01 0 0 0 0
  HIDE 0 0 0 0 0 0 0 0 0 0
  MIRR 2 0
  DISZ  1.3
  GLAS  ___BLANK 1 0 1.80400 46.58 0 0 0 0 0 0
  DIAM  10 1 0 0 1 ""
  POPS 0 0 0 0 0 0 0 0 1 1 1 1 0 0 0 0
SURF 27
  TYPE STANDARD
  CURV 0.00797834994957683 0 0 0 0
  HIDE 0 0 0 0 0 0 0 0 0 0
  MIRR 2 0
  DISZ  39.15
  DIAM  11.005 1 0 0 1 ""
  POPS 0 0 0 0 0 0 0 0 1 1 1 1 0 0 0 0
SURF 28
  TYPE STANDARD
  CURV 0.0 0 0 0 0 ""
  HIDE 0 0 0 0 0 0 0 0 0 0
  MIRR 2 0
  DISZ 0
  DIAM 21.6 1 0 0 1 ""
  POPS 0 0 0 0 0 0 0 0 1 1 1 1 0 0 0 0
TOL TOFF   0   0              0              0   0 0 0 0
MNUM 9 1
SDIA   15   1 8.2385 0 0 0 1 1 1 0 0
SDIA   15   2 8.253 0 0 0 1 1 1 0 0
SDIA   15   3 8.6125 0 0 0 1 1 1 0 0
SDIA   15   4 8.2385 0 0 0 1 1 1 0 0
SDIA   15   5 8.253 0 0 0 1 1 1 0 0
SDIA   15   6 8.6125 0 0 0 1 1 1 0 0
SDIA   15   7 8.2385 0 0 0 1 1 1 0 0
SDIA   15   8 8.253 0 0 0 1 1 1 0 0
SDIA   15   9 8.6125 0 0 0 1 1 1 0 0
THIC   0   1 1.00E+10 0 0 0 1 1 1 0 0
THIC   0   2 1.00E+10 0 0 0 1 1 1 0 0
THIC   0   3 1.00E+10 0 0 0 1 1 1 0 0
THIC   0   4 825.2688 0 0 0 1 1 1 0 0
THIC   0   5 1429.7337 0 0 0 1 1 1 0 0
THIC   0   6 5065.4811 0 0 0 1 1 1 0 0
THIC   0   7 314.9335 0 0 0 1 1 1 0 0
THIC   0   8 299.9877 0 0 0 1 1 1 0 0
THIC   0   9 259.2589 0 0 0 1 1 1 0 0
THIC   5   1 2.16928 0 0 0 1 1 1 0 0
THIC   5   2 9.21209 0 0 0 1 1 1 0 0
THIC   5   3 38.15808 0 0 0 1 1 1 0 0
THIC   5   4 1.59450 0 0 0 1 1 1 0 0
THIC   5   5 8.75909 0 0 0 1 1 1 0 0
THIC   5   6 36.58228 0 0 0 1 1 1 0 0
THIC   5   7 0.79962 0 0 0 1 1 1 0 0
THIC   5   8 7.41055 0 0 0 1 1 1 0 0
THIC   5   9 29.90142 0 0 0 1 1 1 0 0
THIC   14   1 19.14864 0 0 0 1 1 1 0 0
THIC   14   2 12.10583 0 0 0 1 1 1 0 0
THIC   14   3 0.80311 0 0 0 1 1 1 0 0
THIC   14   4 19.72342 0 0 0 1 1 1 0 0
THIC   14   5 12.55883 0 0 0 1 1 1 0 0
THIC   14   6 2.37891 0 0 0 1 1 1 0 0
THIC   14   7 20.51830 0 0 0 1 1 1 0 0
THIC   14   8 13.90737 0 0 0 1 1 1 0 0
THIC   14   9 9.05977 0 0 0 1 1 1 0 0
THIC   21   1 5.75080 0 0 0 1 1 1 0 0
THIC   21   2 3.31464 0 0 0 1 1 1 0 0
THIC   21   3 1.46943 0 0 0 1 1 1 0 0
THIC   21   4 5.75080 0 0 0 1 1 1 0 0
THIC   21   5 3.31464 0 0 0 1 1 1 0 0
THIC   21   6 1.46943 0 0 0 1 1 1 0 0
THIC   21   7 5.75080 0 0 0 1 1 1 0 0
THIC   21   8 3.31464 0 0 0 1 1 1 0 0
THIC   21   9 1.46943 0 0 0 1 1 1 0 0
THIC   27   1 39.15 0 0 0 1 1 1 0 0
THIC   27   2 56.53 0 0 0 1 1 1 0 0
THIC   27   3 81.49 0 0 0 1 1 1 0 0
THIC   27   4 39.15 0 0 0 1 1 1 0 0
THIC   27   5 56.53 0 0 0 1 1 1 0 0
THIC   27   6 81.49 0 0 0 1 1 1 0 0
THIC   27   7 39.15 0 0 0 1 1 1 0 0
THIC   27   8 56.53 0 0 0 1 1 1 0 0
THIC   27   9 81.49 0 0 0 1 1 1 0 0
